opendss_networks/LV12_248bus/lines.dss
new line.L_10 lineCode=ugsc_16cu_xlpe/nyl/pvc_ug_4w_bundled bus1=B372 bus2=B1521 length=0.0980180423302 units=km phases=4
new line.L_21 lineCode=ugsc_16cu_xlpe/nyl/pvc_ug_4w_bundled bus1=B3163 bus2=B321 length=0.0133083470239 units=km phases=4
new line.L_29 lineCode=ugsc_16cu_xlpe/nyl/pvc_ug_4w_bundled bus1=B2887 bus2=B1453 length=0.00961603875416 units=km phases=4
new line.L_35 lineCode=generic/lv bus1=B2899 bus2=B2593 length=0.0302928100871 units=km phases=4
new line.L_62 lineCode=ugsc_16cu_xlpe/nyl/pvc_ug_4w_bundled bus1=B1693 bus2=B2899 length=0.00560316901764 units=km phases=4
new line.L_77 lineCode=ugsc_16cu_xlpe/nyl/pvc_ug_4w_bundled bus1=B2542 bus2=B2533 length=0.0128989217511 units=km phases=4
new line.L_79 lineCode=uglv_240al_xlpe/nyl/pvc_ug_4w_bundled bus1=B820 bus2=B2225 length=0.0238299569973 units=km phases=4
new line.L_117 lineCode=ugsc_16cu_xlpe/nyl/pvc_ug_4w_bundled bus1=B79 bus2=B476 length=0.0474724643257 units=km phases=4
new line.L_121 lineCode=ugsc_16cu_xlpe/nyl/pvc_ug_4w_bundled bus1=B2332 bus2=B1768 length=0.0520522968897 units=km phases=4
new line.L_129 lineCode=uglv_240al_xlpe/nyl/pvc_ug_4w_bundled bus1=B2833 bus2=B545 length=0.0321394000414 units=km phases=4
new line.L_149 lineCode=ugsc_16cu_xlpe/nyl/pvc_ug_4w_bundled bus1=B2848 bus2=B2075 length=0.0624877227745 units=km phases=4
new line.L_192 lineCode=generic/lv bus1=B1462 bus2=B2452 length=0.0294651386921 units=km phases=4
new line.L_195 lineCode=ugsc_16cu_xlpe/nyl/pvc_ug_4w_bundled bus1=B3116 bus2=B1991 length=0.0278427034591 units=km phases=4
new line.L_232 lineCode=ugsc_16cu_xlpe/nyl/pvc_ug_4w_bundled bus1=B3404 bus2=B1770 length=0.00950827083595 units=km phases=4
new line.L_233 lineCode=ugsc_16cu_xlpe/nyl/pvc_ug_4w_bundled bus1=B3203 bus2=B1521 length=0.0787174739851 units=km phases=4
new line.L_246 lineCode=uglv_240al_xlpe/nyl/pvc_ug_4w_bundled bus1=B1278 bus2=B192 length=0.0506001729616 units=km phases=4
new line.L_251 lineCode=ugsc_16cu_xlpe/nyl/pvc_ug_4w_bundled bus1=B571 bus2=B1770 length=0.0569777183026 units=km phases=4
new line.L_253 lineCode=ugsc_16cu_xlpe/nyl/pvc_ug_4w_bundled bus1=B1204 bus2=B2769 length=0.0439762059953 units=km phases=4
new line.L_266 lineCode=ugsc_16cu_xlpe/nyl/pvc_ug_4w_bundled bus1=B997 bus2=B417 length=0.0800720645653 units=km phases=4
new line.L_295 lineCode=ugsc_16cu_xlpe/nyl/pvc_ug_4w_bundled bus1=B1446 bus2=B1356 length=0.0303072126267 units=km phases=4
new line.L_298 lineCode=ugsc_16cu_xlpe/nyl/pvc_ug_4w_bundled bus1=B1799 bus2=B6 length=0.0154331302101 units=km phases=4
new line.L_301 lineCode=ugsc_16cu_xlpe/nyl/pvc_ug_4w_bundled bus1=B1776 bus2=B3327 length=0.00559398453768 units=km phases=4
new line.L_318 lineCode=generic/lv bus1=B969 bus2=B959 length=0.0409881449249 units=km phases=4
new line.L_343 lineCode=ughv_400al_triplex_ug_4w_bundled bus1=B800 bus2=B2920 length=0.000217106628659 units=km phases=4
new line.L_364 lineCode=ugsc_16cu_xlpe/nyl/pvc_ug_4w_bundled bus1=B2905 bus2=B3325 length=0.0454425408997 units=km phases=4
new line.L_414 lineCode=uglv_240al_xlpe/nyl/pvc_ug_4w_bundled bus1=B545 bus2=B1786 length=0.0558149980704 units=km phases=4
new line.L_446 lineCode=ugsc_16cu_xlpe/nyl/pvc_ug_4w_bundled bus1=B216 bus2=B1991 length=0.0703429762723 units=km phases=4
new line.L_450 lineCode=ugsc_16cu_xlpe/nyl/pvc_ug_4w_bundled bus1=B421 bus2=B555 length=0.0301040741966 units=km phases=4
new line.L_484 lineCode=ugsc_16cu_xlpe/nyl/pvc_ug_4w_bundled bus1=B1991 bus2=B1521 length=0.0179120610343 units=km phases=4
new line.L_508 lineCode=ugsc_16cu_xlpe/nyl/pvc_ug_4w_bundled bus1=B509 bus2=B3325 length=0.0165935140097 units=km phases=4
new line.L_510 lineCode=ugsc_16cu_xlpe/nyl/pvc_ug_4w_bundled bus1=B2334 bus2=B959 length=0.0359805443753 units=km phases=4
new line.L_514 lineCode=ughv_400al_triplex_ug_4w_bundled bus1=B238 bus2=B800 length=0.000244629175817 units=km phases=4
new line.L_519 lineCode=generic/lv bus1=B1991 bus2=B509 length=0.0400081061670 units=km phases=4
new line.L_553 lineCode=generic/lv bus1=B253 bus2=B1991 length=0.0343371905753 units=km phases=4
new line.L_559 lineCode=ugsc_16cu_xlpe/nyl/pvc_ug_4w_bundled bus1=B978 bus2=B1799 length=0.0786647561103 units=km phases=4
new line.L_570 lineCode=ugsc_16cu_xlpe/nyl/pvc_ug_4w_bundled bus1=B2502 bus2=B1209 length=0.00559017956614 units=km phases=4
new line.L_573 lineCode=ugsc_16cu_xlpe/nyl/pvc_ug_4w_bundled bus1=B986 bus2=B3270 length=0.0700441058507 units=km phases=4
new line.L_581 lineCode=ugsc_16cu_xlpe/nyl/pvc_ug_4w_bundled bus1=B733 bus2=B1030 length=0.0548266354105 units=km phases=4
new line.L_583 lineCode=ugsc_16cu_xlpe/nyl/pvc_ug_4w_bundled bus1=B629 bus2=B1770 length=0.0763859166595 units=km phases=4
new line.L_619 lineCode=generic/lv bus1=B2533 bus2=B1142 length=0.0399409880450 units=km phases=4
new line.L_634 lineCode=ugsc_16cu_xlpe/nyl/pvc_ug_4w_bundled bus1=B1810 bus2=B2620 length=0.0768265328699 units=km phases=4
new line.L_649 lineCode=ugsc_16cu_xlpe/nyl/pvc_ug_4w_bundled bus1=B959 bus2=B864 length=0.0124102156809 units=km phases=4
new line.L_701 lineCode=ugsc_16cu_xlpe/nyl/pvc_ug_4w_bundled bus1=B3047 bus2=B1142 length=0.0122268859973 units=km phases=4
new line.L_721 lineCode=ugsc_16cu_xlpe/nyl/pvc_ug_4w_bundled bus1=B3164 bus2=B1768 length=0.0708793246899 units=km phases=4
new line.L_724 lineCode=ugsc_16cu_xlpe/nyl/pvc_ug_4w_bundled bus1=B2375 bus2=B417 length=0.0296503486665 units=km phases=4
new line.L_772 lineCode=ugsc_16cu_xlpe/nyl/pvc_ug_4w_bundled bus1=B2976 bus2=B1453 length=0.00972679193429 units=km phases=4
new line.L_775 lineCode=ugsc_16cu_xlpe/nyl/pvc_ug_4w_bundled bus1=B3228 bus2=B253 length=0.0646798571796 units=km phases=4
new line.L_791 lineCode=ugsc_16cu_xlpe/nyl/pvc_ug_4w_bundled bus1=B2536 bus2=B1581 length=0.0122726845618 units=km phases=4
new line.L_835 lineCode=ugsc_16cu_xlpe/nyl/pvc_ug_4w_bundled bus1=B2716 bus2=B111 length=0.00561140442607 units=km phases=4
new line.L_872 lineCode=ugsc_16cu_xlpe/nyl/pvc_ug_4w_bundled bus1=B2219 bus2=B959 length=0.0199498026545 units=km phases=4
new line.L_908 lineCode=ugsc_16cu_xlpe/nyl/pvc_ug_4w_bundled bus1=B2962 bus2=B820 length=0.00495446789207 units=km phases=4
new line.L_924 lineCode=ugsc_16cu_xlpe/nyl/pvc_ug_4w_bundled bus1=B1755 bus2=B545 length=0.0102558456078 units=km phases=4
new line.L_927 lineCode=generic/lv bus1=B1142 bus2=B2593 length=0.0398671995501 units=km phases=4
new line.L_935 lineCode=ugsc_16cu_xlpe/nyl/pvc_ug_4w_bundled bus1=B3163 bus2=B417 length=0.0376575753935 units=km phases=4
new line.L_945 lineCode=ugsc_16cu_xlpe/nyl/pvc_ug_4w_bundled bus1=B3167 bus2=B2558 length=0.00998209429848 units=km phases=4
new line.L_948 lineCode=ugsc_16cu_xlpe/nyl/pvc_ug_4w_bundled bus1=B1379 bus2=B1278 length=0.0193395608411 units=km phases=4
new line.L_958 lineCode=uglv_240al_xlpe/nyl/pvc_ug_4w_bundled bus1=B959 bus2=B2188 length=0.0220021943099 units=km phases=4
new line.L_976 lineCode=generic/lv bus1=B1453 bus2=B2899 length=0.0257250603439 units=km phases=4
new line.L_988 lineCode=ugsc_16cu_xlpe/nyl/pvc_ug_4w_bundled bus1=B2286 bus2=B1278 length=0.0191129813209 units=km phases=4
new line.L_1011 lineCode=ughv_400al_triplex_ug_4w_bundled bus1=B800 bus2=B2733 length=0.000533053687585 units=km phases=4
new line.L_1029 lineCode=ugsc_16cu_xlpe/nyl/pvc_ug_4w_bundled bus1=B1456 bus2=B1768 length=0.0106127452861 units=km phases=4
new line.L_1079 lineCode=ugsc_16cu_xlpe/nyl/pvc_ug_4w_bundled bus1=B2273 bus2=B3087 length=0.0812486408405 units=km phases=4
new line.L_1083 lineCode=ugsc_16cu_xlpe/nyl/pvc_ug_4w_bundled bus1=B1497 bus2=B1770 length=0.00515737407933 units=km phases=4
new line.L_1097 lineCode=ughv_400al_triplex_ug_4w_bundled bus1=B2874 bus2=B2285 length=0.000800000000000 units=km phases=4
new line.L_1099 lineCode=generic/lv bus1=B740 bus2=B1453 length=0.0343145474316 units=km phases=4
new line.L_1101 lineCode=uglv_240al_xlpe/nyl/pvc_ug_4w_bundled bus1=B348 bus2=B3358 length=0.0356375580945 units=km phases=4
new line.L_1156 lineCode=ugsc_16cu_xlpe/nyl/pvc_ug_4w_bundled bus1=B2971 bus2=B1770 length=0.00816216076161 units=km phases=4
new line.L_1241 lineCode=ugsc_16cu_xlpe/nyl/pvc_ug_4w_bundled bus1=B476 bus2=B2456 length=0.0199349803224 units=km phases=4
new line.L_1261 lineCode=ugsc_16cu_xlpe/nyl/pvc_ug_4w_bundled bus1=B133 bus2=B2285 length=0.00977504710560 units=km phases=4
new line.L_1272 lineCode=ugsc_16cu_xlpe/nyl/pvc_ug_4w_bundled bus1=B2110 bus2=B321 length=0.0291076827538 units=km phases=4
new line.L_1306 lineCode=ugsc_16cu_xlpe/nyl/pvc_ug_4w_bundled bus1=B604 bus2=B1538 length=0.0400211403368 units=km phases=4
new line.L_1338 lineCode=ugsc_16cu_xlpe/nyl/pvc_ug_4w_bundled bus1=B3384 bus2=B1030 length=0.00587711915894 units=km phases=4
new line.L_1373 lineCode=ugsc_16cu_xlpe/nyl/pvc_ug_4w_bundled bus1=B509 bus2=B189 length=0.00553409384371 units=km phases=4
new line.L_1394 lineCode=ugsc_16cu_xlpe/nyl/pvc_ug_4w_bundled bus1=B815 bus2=B2536 length=0.0503351139152 units=km phases=4
new line.L_1410 lineCode=ugsc_16cu_xlpe/nyl/pvc_ug_4w_bundled bus1=B354 bus2=B2819 length=0.0165107937929 units=km phases=4
new line.L_1426 lineCode=generic/lv bus1=B509 bus2=B354 length=0.0400589932955 units=km phases=4
new line.L_1427 lineCode=ugsc_16cu_xlpe/nyl/pvc_ug_4w_bundled bus1=B1103 bus2=B2491 length=0.0564348954458 units=km phases=4
new line.L_1437 lineCode=ugsc_16cu_xlpe/nyl/pvc_ug_4w_bundled bus1=B2745 bus2=B3087 length=0.0107635144025 units=km phases=4
new line.L_1454 lineCode=uglv_240al_xlpe/nyl/pvc_ug_4w_bundled bus1=B1427 bus2=B2452 length=0.0381243668249 units=km phases=4
new line.L_1457 lineCode=ugsc_16cu_xlpe/nyl/pvc_ug_4w_bundled bus1=B492 bus2=B555 length=0.0248623891305 units=km phases=4
new line.L_1471 lineCode=ugsc_16cu_xlpe/nyl/pvc_ug_4w_bundled bus1=B1809 bus2=B3087 length=0.0499877728170 units=km phases=4
new line.L_1504 lineCode=ugsc_16cu_xlpe/nyl/pvc_ug_4w_bundled bus1=B1738 bus2=B2114 length=0.00600252744045 units=km phases=4
new line.L_1515 lineCode=ugsc_16cu_xlpe/nyl/pvc_ug_4w_bundled bus1=B2491 bus2=B3101 length=0.0539146161107 units=km phases=4
new line.L_1532 lineCode=uglv_240al_xlpe/nyl/pvc_ug_4w_bundled bus1=B820 bus2=B2958 length=0.0235464362787 units=km phases=4
new line.L_1533 lineCode=ugsc_16cu_xlpe/nyl/pvc_ug_4w_bundled bus1=B1284 bus2=B2533 length=0.0671991342323 units=km phases=4
new line.L_1586 lineCode=ugsc_16cu_xlpe/nyl/pvc_ug_4w_bundled bus1=B399 bus2=B192 length=0.0980405422868 units=km phases=4
new line.L_1599 lineCode=ugsc_16cu_xlpe/nyl/pvc_ug_4w_bundled bus1=B1843 bus2=B2533 length=0.0267789442724 units=km phases=4
new line.L_1644 lineCode=generic/lv bus1=B2351 bus2=B2533 length=0.0532331047712 units=km phases=4
new line.L_1661 lineCode=ugsc_16cu_xlpe/nyl/pvc_ug_4w_bundled bus1=B3401 bus2=B2593 length=0.0200783257039 units=km phases=4
new line.L_1679 lineCode=generic/lv bus1=B3163 bus2=B2769 length=0.0397932081140 units=km phases=4
new line.L_1684 lineCode=ugsc_16cu_xlpe/nyl/pvc_ug_4w_bundled bus1=B1673 bus2=B3275 length=0.00620027249748 units=km phases=4
new line.L_1703 lineCode=ugsc_16cu_xlpe/nyl/pvc_ug_4w_bundled bus1=B2052 bus2=B192 length=0.0203082054700 units=km phases=4
new line.L_1723 lineCode=ugsc_16cu_xlpe/nyl/pvc_ug_4w_bundled bus1=B2771 bus2=B2833 length=0.00336165967513 units=km phases=4
new line.L_1734 lineCode=ughv_400al_triplex_ug_4w_bundled bus1=B141 bus2=B2744 length=7.47735676854e-05 units=km phases=4
new line.L_1745 lineCode=ugsc_16cu_xlpe/nyl/pvc_ug_4w_bundled bus1=B2092 bus2=B2542 length=0.00758856073362 units=km phases=4
new line.L_1756 lineCode=generic/lv bus1=B1278 bus2=B555 length=0.0188550591350 units=km phases=4
new line.L_1782 lineCode=ugsc_16cu_xlpe/nyl/pvc_ug_4w_bundled bus1=B457 bus2=B6 length=0.0169029754622 units=km phases=4
new line.L_1900 lineCode=ugsc_16cu_xlpe/nyl/pvc_ug_4w_bundled bus1=B2623 bus2=B3047 length=0.0580210088127 units=km phases=4
new line.L_1905 lineCode=ugsc_16cu_xlpe/nyl/pvc_ug_4w_bundled bus1=B1983 bus2=B728 length=0.0672271744763 units=km phases=4
new line.L_1906 lineCode=ugsc_16cu_xlpe/nyl/pvc_ug_4w_bundled bus1=B1411 bus2=B2533 length=0.0626664035895 units=km phases=4
new line.L_1937 lineCode=ugsc_16cu_xlpe/nyl/pvc_ug_4w_bundled bus1=B1313 bus2=B509 length=0.0107968137732 units=km phases=4
new line.L_1967 lineCode=ugsc_16cu_xlpe/nyl/pvc_ug_4w_bundled bus1=B1649 bus2=B2899 length=0.0605019021215 units=km phases=4
new line.L_1976 lineCode=ugsc_16cu_xlpe/nyl/pvc_ug_4w_bundled bus1=B2613 bus2=B545 length=0.00876978442059 units=km phases=4
new line.L_1987 lineCode=uglv_240al_xlpe/nyl/pvc_ug_4w_bundled bus1=B2351 bus2=B348 length=0.0399178874129 units=km phases=4
new line.L_2003 lineCode=ugsc_16cu_xlpe/nyl/pvc_ug_4w_bundled bus1=B2994 bus2=B3191 length=0.0702253909125 units=km phases=4
new line.L_2029 lineCode=ugsc_16cu_xlpe/nyl/pvc_ug_4w_bundled bus1=B2559 bus2=B740 length=0.0189635348080 units=km phases=4
new line.L_2132 lineCode=uglv_240al_xlpe/nyl/pvc_ug_4w_bundled bus1=B820 bus2=B1278 length=0.0534217596296 units=km phases=4
new line.L_2150 lineCode=generic/lv bus1=B1770 bus2=B111 length=0.0234424137479 units=km phases=4
new line.L_2151 lineCode=ugsc_16cu_xlpe/nyl/pvc_ug_4w_bundled bus1=B524 bus2=B1768 length=0.0713862565349 units=km phases=4
new line.L_2190 lineCode=ugsc_16cu_xlpe/nyl/pvc_ug_4w_bundled bus1=B1290 bus2=B2452 length=0.0196679131510 units=km phases=4
new line.L_2199 lineCode=ugsc_16cu_xlpe/nyl/pvc_ug_4w_bundled bus1=B243 bus2=B1356 length=0.0103600628441 units=km phases=4
new line.L_2215 lineCode=uglv_240al_xlpe/nyl/pvc_ug_4w_bundled bus1=B1356 bus2=B1738 length=0.0401773121987 units=km phases=4
new line.L_2228 lineCode=uglv_240al_xlpe/nyl/pvc_ug_4w_bundled bus1=B1799 bus2=B820 length=0.0441691791589 units=km phases=4
new line.L_2231 lineCode=ugsc_16cu_xlpe/nyl/pvc_ug_4w_bundled bus1=B3162 bus2=B2825 length=0.0468730296685 units=km phases=4
new line.L_2247 lineCode=ugsc_16cu_xlpe/nyl/pvc_ug_4w_bundled bus1=B2491 bus2=B256 length=0.00639551200105 units=km phases=4
new line.L_2257 lineCode=ugsc_16cu_xlpe/nyl/pvc_ug_4w_bundled bus1=B192 bus2=B153 length=0.00604556387659 units=km phases=4
new line.L_2280 lineCode=ugsc_16cu_xlpe/nyl/pvc_ug_4w_bundled bus1=B969 bus2=B2807 length=0.0122754500434 units=km phases=4
new line.L_2281 lineCode=ugsc_16cu_xlpe/nyl/pvc_ug_4w_bundled bus1=B2793 bus2=B2558 length=0.0326778785051 units=km phases=4
new line.L_2293 lineCode=ugsc_16cu_xlpe/nyl/pvc_ug_4w_bundled bus1=B1338 bus2=B3191 length=0.0275452821305 units=km phases=4
new line.L_2323 lineCode=ugsc_16cu_xlpe/nyl/pvc_ug_4w_bundled bus1=B12 bus2=B1453 length=0.0421878016933 units=km phases=4
new line.L_2324 lineCode=generic/lv bus1=B854 bus2=B476 length=0.0378989765914 units=km phases=4
new line.L_2358 lineCode=ugsc_16cu_xlpe/nyl/pvc_ug_4w_bundled bus1=B2668 bus2=B2792 length=0.0790102658505 units=km phases=4
new line.L_2362 lineCode=ugsc_16cu_xlpe/nyl/pvc_ug_4w_bundled bus1=B417 bus2=B1703 length=0.0140322704366 units=km phases=4
new line.L_2367 lineCode=ugsc_16cu_xlpe/nyl/pvc_ug_4w_bundled bus1=B1613 bus2=B728 length=0.00568926509025 units=km phases=4
new line.L_2378 lineCode=ugsc_16cu_xlpe/nyl/pvc_ug_4w_bundled bus1=B2536 bus2=B1638 length=0.00559492692601 units=km phases=4
new line.L_2384 lineCode=ugsc_16cu_xlpe/nyl/pvc_ug_4w_bundled bus1=B428 bus2=B2351 length=0.0639186895136 units=km phases=4
new line.L_2404 lineCode=ugsc_16cu_xlpe/nyl/pvc_ug_4w_bundled bus1=B1963 bus2=B40 length=0.0829717534482 units=km phases=4
new line.L_2423 lineCode=ugsc_16cu_xlpe/nyl/pvc_ug_4w_bundled bus1=B2009 bus2=B3047 length=0.0105726553934 units=km phases=4
new line.L_2424 lineCode=ugsc_16cu_xlpe/nyl/pvc_ug_4w_bundled bus1=B1180 bus2=B2833 length=0.00885777679238 units=km phases=4
new line.L_2438 lineCode=ugsc_16cu_xlpe/nyl/pvc_ug_4w_bundled bus1=B1334 bus2=B321 length=0.0182815538289 units=km phases=4
new line.L_2447 lineCode=ugsc_16cu_xlpe/nyl/pvc_ug_4w_bundled bus1=B1321 bus2=B2819 length=0.0685110490181 units=km phases=4
new line.L_2492 lineCode=generic/lv bus1=B348 bus2=B3191 length=0.0419817582545 units=km phases=4
new line.L_2517 lineCode=ugsc_16cu_xlpe/nyl/pvc_ug_4w_bundled bus1=B2542 bus2=B1103 length=0.0535213268247 units=km phases=4
new line.L_2537 lineCode=ughv_400al_triplex_ug_4w_bundled bus1=B1324 bus2=B2888 length=6.69200664901e-05 units=km phases=4
new line.L_2572 lineCode=ugsc_16cu_xlpe/nyl/pvc_ug_4w_bundled bus1=B2060 bus2=B864 length=0.0503351984790 units=km phases=4
new line.L_2580 lineCode=ugsc_16cu_xlpe/nyl/pvc_ug_4w_bundled bus1=B930 bus2=B728 length=0.0103593060318 units=km phases=4
new line.L_2585 lineCode=ugsc_16cu_xlpe/nyl/pvc_ug_4w_bundled bus1=B354 bus2=B2792 length=0.0391228400856 units=km phases=4
new line.L_2633 lineCode=ugsc_16cu_xlpe/nyl/pvc_ug_4w_bundled bus1=B3010 bus2=B348 length=0.0491878405095 units=km phases=4
new line.L_2640 lineCode=generic/lv bus1=B3327 bus2=B2558 length=0.0423094127370 units=km phases=4
new line.L_2650 lineCode=ugsc_16cu_xlpe/nyl/pvc_ug_4w_bundled bus1=B975 bus2=B1453 length=0.0326861896385 units=km phases=4
new line.L_2654 lineCode=generic/lv bus1=B2769 bus2=B2075 length=0.0131966316581 units=km phases=4
new line.L_2674 lineCode=uglv_240al_xlpe/nyl/pvc_ug_4w_bundled bus1=B1356 bus2=B2277 length=0.0399494986197 units=km phases=4
new line.L_2691 lineCode=ugsc_16cu_xlpe/nyl/pvc_ug_4w_bundled bus1=B1103 bus2=B311 length=0.00647523134691 units=km phases=4
new line.L_2732 lineCode=ugsc_16cu_xlpe/nyl/pvc_ug_4w_bundled bus1=B562 bus2=B1209 length=0.0960149123736 units=km phases=4
new line.L_2746 lineCode=generic/lv bus1=B2536 bus2=B969 length=0.0400296005455 units=km phases=4
new line.L_2767 lineCode=ugsc_16cu_xlpe/nyl/pvc_ug_4w_bundled bus1=B2056 bus2=B1738 length=0.0101016644314 units=km phases=4
new line.L_2774 lineCode=ugsc_16cu_xlpe/nyl/pvc_ug_4w_bundled bus1=B2939 bus2=B354 length=0.0249216872465 units=km phases=4
new line.L_2784 lineCode=generic/lv bus1=B3191 bus2=B2536 length=0.0399264587255 units=km phases=4
new line.L_2819 lineCode=ugsc_16cu_xlpe/nyl/pvc_ug_4w_bundled bus1=B3250 bus2=B969 length=0.0516822509757 units=km phases=4
new line.L_2821 lineCode=generic/lv bus1=B1538 bus2=B740 length=0.0315412765224 units=km phases=4
new line.L_2828 lineCode=generic/lv bus1=B111 bus2=B3327 length=0.0315386414879 units=km phases=4
new line.L_2836 lineCode=ugsc_16cu_xlpe/nyl/pvc_ug_4w_bundled bus1=B518 bus2=B1209 length=0.0849736956963 units=km phases=4
new line.L_2848 lineCode=ugsc_16cu_xlpe/nyl/pvc_ug_4w_bundled bus1=B1737 bus2=B740 length=0.0574250783508 units=km phases=4
new line.L_2855 lineCode=uglv_240al_xlpe/nyl/pvc_ug_4w_bundled bus1=B3358 bus2=B579 length=0.00394166397588 units=km phases=4
new line.L_2865 lineCode=ugsc_16cu_xlpe/nyl/pvc_ug_4w_bundled bus1=B1999 bus2=B3163 length=0.0538153153310 units=km phases=4
new line.L_2876 lineCode=uglv_240al_xlpe/nyl/pvc_ug_4w_bundled bus1=B2620 bus2=B3270 length=0.0292192090674 units=km phases=4
new line.L_2882 lineCode=ugsc_16cu_xlpe/nyl/pvc_ug_4w_bundled bus1=B3134 bus2=B253 length=0.0183434366246 units=km phases=4
new line.L_2885 lineCode=ugsc_16cu_xlpe/nyl/pvc_ug_4w_bundled bus1=B1484 bus2=B2833 length=0.0241847222332 units=km phases=4
new line.L_2912 lineCode=generic/lv bus1=B2558 bus2=B1462 length=0.0400596109778 units=km phases=4
new line.L_2969 lineCode=ugsc_16cu_xlpe/nyl/pvc_ug_4w_bundled bus1=B547 bus2=B728 length=0.0172692129452 units=km phases=4
new line.L_2996 lineCode=ugsc_16cu_xlpe/nyl/pvc_ug_4w_bundled bus1=B1964 bus2=B3270 length=0.0500861778096 units=km phases=4
new line.L_3025 lineCode=generic/lv bus1=B1768 bus2=B2593 length=0.0122252914063 units=km phases=4
new line.L_3032 lineCode=ugsc_16cu_xlpe/nyl/pvc_ug_4w_bundled bus1=B2909 bus2=B1738 length=0.0683875430380 units=km phases=4
new line.L_3037 lineCode=ughv_400al_triplex_ug_4w_bundled bus1=B800 bus2=B3086 length=0.000320869004455 units=km phases=4
new line.L_3046 lineCode=ugsc_16cu_xlpe/nyl/pvc_ug_4w_bundled bus1=B767 bus2=B1142 length=0.0483955251673 units=km phases=4
new line.L_3048 lineCode=ugsc_16cu_xlpe/nyl/pvc_ug_4w_bundled bus1=B1924 bus2=B2899 length=0.0408490703909 units=km phases=4
new line.L_3075 lineCode=ugsc_16cu_xlpe/nyl/pvc_ug_4w_bundled bus1=B1398 bus2=B2769 length=0.0237579593361 units=km phases=4
new line.L_3079 lineCode=uglv_240al_xlpe/nyl/pvc_ug_4w_bundled bus1=B1738 bus2=B192 length=0.0417181965617 units=km phases=4
new line.L_3084 lineCode=ugsc_16cu_xlpe/nyl/pvc_ug_4w_bundled bus1=B1991 bus2=B2382 length=0.0110015343518 units=km phases=4
new line.L_3092 lineCode=ugsc_16cu_xlpe/nyl/pvc_ug_4w_bundled bus1=B3252 bus2=B2899 length=0.0326562978008 units=km phases=4
new line.L_3155 lineCode=ugsc_16cu_xlpe/nyl/pvc_ug_4w_bundled bus1=B1054 bus2=B854 length=0.0376109138575 units=km phases=4
new line.L_3184 lineCode=ugsc_16cu_xlpe/nyl/pvc_ug_4w_bundled bus1=B2026 bus2=B2769 length=0.0210185502557 units=km phases=4
new line.L_3193 lineCode=uglv_240al_xlpe/nyl/pvc_ug_4w_bundled bus1=B2833 bus2=B2285 length=0.0327317204660 units=km phases=4
new line.L_3197 lineCode=ugsc_16cu_xlpe/nyl/pvc_ug_4w_bundled bus1=B1083 bus2=B2285 length=0.00968365568747 units=km phases=4
new line.L_3211 lineCode=ugsc_16cu_xlpe/nyl/pvc_ug_4w_bundled bus1=B2610 bus2=B1453 length=0.0174511632512 units=km phases=4
new line.L_3219 lineCode=ugsc_16cu_xlpe/nyl/pvc_ug_4w_bundled bus1=B1597 bus2=B1738 length=0.0107169863909 units=km phases=4
new line.L_3230 lineCode=ugsc_16cu_xlpe/nyl/pvc_ug_4w_bundled bus1=B2843 bus2=B3358 length=0.00563416776796 units=km phases=4
new line.L_3300 lineCode=ugsc_16cu_xlpe/nyl/pvc_ug_4w_bundled bus1=B1608 bus2=B40 length=0.00860497189961 units=km phases=4
new line.L_3302 lineCode=uglv_240al_xlpe/nyl/pvc_ug_4w_bundled bus1=B1673 bus2=B1663 length=0.0375821234748 units=km phases=4
new line.L_3347 lineCode=uglv_240al_xlpe/nyl/pvc_ug_4w_bundled bus1=B3270 bus2=B3087 length=0.0400927741293 units=km phases=4
new line.L_3417 lineCode=ugsc_16cu_xlpe/nyl/pvc_ug_4w_bundled bus1=B1538 bus2=B1136 length=0.00572071000282 units=km phases=4
new line.L_3426 lineCode=ugsc_16cu_xlpe/nyl/pvc_ug_4w_bundled bus1=B3357 bus2=B755 length=0.0105376080092 units=km phases=4
new line.L_3434 lineCode=ugsc_16cu_xlpe/nyl/pvc_ug_4w_bundled bus1=B959 bus2=B3088 length=0.00558901648613 units=km phases=4
new line.L_3451 lineCode=ugsc_16cu_xlpe/nyl/pvc_ug_4w_bundled bus1=B2089 bus2=B2807 length=0.00559404942212 units=km phases=4
new line.L_3470 lineCode=ugsc_16cu_xlpe/nyl/pvc_ug_4w_bundled bus1=B1184 bus2=B854 length=0.0284633101659 units=km phases=4
new line.L_3498 lineCode=ugsc_16cu_xlpe/nyl/pvc_ug_4w_bundled bus1=B474 bus2=B2825 length=0.00919996537356 units=km phases=4
new line.L_3501 lineCode=ugsc_16cu_xlpe/nyl/pvc_ug_4w_bundled bus1=B1706 bus2=B2620 length=0.0589782204591 units=km phases=4
new line.L_3507 lineCode=ugsc_16cu_xlpe/nyl/pvc_ug_4w_bundled bus1=B3270 bus2=B2084 length=0.00571038827420 units=km phases=4
new line.L_3594 lineCode=ugsc_16cu_xlpe/nyl/pvc_ug_4w_bundled bus1=B2822 bus2=B728 length=0.0626754197043 units=km phases=4
new line.L_3602 lineCode=ugsc_16cu_xlpe/nyl/pvc_ug_4w_bundled bus1=B2082 bus2=B1462 length=0.0710597155298 units=km phases=4
new line.L_3607 lineCode=uglv_240al_xlpe/nyl/pvc_ug_4w_bundled bus1=B40 bus2=B2620 length=0.0238284106068 units=km phases=4
new line.L_3614 lineCode=ugsc_16cu_xlpe/nyl/pvc_ug_4w_bundled bus1=B3237 bus2=B1768 length=0.0644016525855 units=km phases=4
new line.L_3648 lineCode=ugsc_16cu_xlpe/nyl/pvc_ug_4w_bundled bus1=B1507 bus2=B3325 length=0.0296862510335 units=km phases=4
new line.L_3672 lineCode=ugsc_16cu_xlpe/nyl/pvc_ug_4w_bundled bus1=B1786 bus2=B1171 length=0.0119540250518 units=km phases=4
new line.L_3682 lineCode=ugsc_16cu_xlpe/nyl/pvc_ug_4w_bundled bus1=B966 bus2=B2819 length=0.00559245064306 units=km phases=4
new line.L_3694 lineCode=ugsc_16cu_xlpe/nyl/pvc_ug_4w_bundled bus1=B2461 bus2=B820 length=0.0712446667764 units=km phases=4
new line.L_3699 lineCode=uglv_240al_xlpe/nyl/pvc_ug_4w_bundled bus1=B2452 bus2=B40 length=0.0350487564538 units=km phases=4
new line.L_3746 lineCode=ugsc_16cu_xlpe/nyl/pvc_ug_4w_bundled bus1=B929 bus2=B755 length=0.0797638022962 units=km phases=4
new line.L_3747 lineCode=uglv_240al_xlpe/nyl/pvc_ug_4w_bundled bus1=B3087 bus2=B1799 length=0.0401522216354 units=km phases=4
new line.L_3761 lineCode=uglv_240al_xlpe/nyl/pvc_ug_4w_bundled bus1=B820 bus2=B253 length=0.0290532984186 units=km phases=4
new line.L_3801 lineCode=ugsc_16cu_xlpe/nyl/pvc_ug_4w_bundled bus1=B3215 bus2=B1030 length=0.0623364241022 units=km phases=4
new line.L_3816 lineCode=ugsc_16cu_xlpe/nyl/pvc_ug_4w_bundled bus1=B3270 bus2=B755 length=0.0154657365465 units=km phases=4
new line.L_3822 lineCode=ugsc_16cu_xlpe/nyl/pvc_ug_4w_bundled bus1=B662 bus2=B1356 length=0.0106180397889 units=km phases=4
new line.L_3840 lineCode=ugsc_16cu_xlpe/nyl/pvc_ug_4w_bundled bus1=B2051 bus2=B3358 length=0.0659456274820 units=km phases=4
new line.L_3868 lineCode=ugsc_16cu_xlpe/nyl/pvc_ug_4w_bundled bus1=B1231 bus2=B1738 length=0.0694822725453 units=km phases=4
new line.L_3885 lineCode=ugsc_16cu_xlpe/nyl/pvc_ug_4w_bundled bus1=B3278 bus2=B3047 length=0.0764638304123 units=km phases=4
new line.L_3893 lineCode=ugsc_16cu_xlpe/nyl/pvc_ug_4w_bundled bus1=B486 bus2=B969 length=0.0518226689702 units=km phases=4
new line.L_3898 lineCode=ugsc_16cu_xlpe/nyl/pvc_ug_4w_bundled bus1=B1799 bus2=B1296 length=0.00559492544217 units=km phases=4
new line.L_3929 lineCode=ugsc_16cu_xlpe/nyl/pvc_ug_4w_bundled bus1=B1278 bus2=B2818 length=0.0298243740967 units=km phases=4
new line.L_4030 lineCode=ughv_400al_triplex_ug_4w_bundled bus1=B800 bus2=B2501 length=0.000361569046887 units=km phases=4
new line.L_4040 lineCode=generic/lv bus1=B3191 bus2=B728 length=0.0122823386074 units=km phases=4
new line.L_4045 lineCode=ugsc_16cu_xlpe/nyl/pvc_ug_4w_bundled bus1=B1026 bus2=B2558 length=0.0117255185774 units=km phases=4
new line.L_4053 lineCode=generic/lv bus1=B192 bus2=B854 length=0.0684391364978 units=km phases=4
new line.L_4059 lineCode=ugsc_16cu_xlpe/nyl/pvc_ug_4w_bundled bus1=B295 bus2=B755 length=0.0104051239401 units=km phases=4
new line.L_4077 lineCode=ugsc_16cu_xlpe/nyl/pvc_ug_4w_bundled bus1=B1019 bus2=B2620 length=0.00731877430887 units=km phases=4
new line.L_4099 lineCode=ugsc_16cu_xlpe/nyl/pvc_ug_4w_bundled bus1=B1356 bus2=B1111 length=0.0207292711943 units=km phases=4
new line.L_4131 lineCode=ugsc_16cu_xlpe/nyl/pvc_ug_4w_bundled bus1=B589 bus2=B854 length=0.0473855574223 units=km phases=4
new line.L_4140 lineCode=ughv_400al_triplex_ug_4w_bundled bus1=B908 bus2=B1122 length=0.000255937537813 units=km phases=4
new line.L_4154 lineCode=ugsc_16cu_xlpe/nyl/pvc_ug_4w_bundled bus1=B1035 bus2=B854 length=0.00982628584090 units=km phases=4
new line.L_4189 lineCode=ugsc_16cu_xlpe/nyl/pvc_ug_4w_bundled bus1=B2828 bus2=B2807 length=0.0502918619586 units=km phases=4
new line.L_4239 lineCode=ugsc_16cu_xlpe/nyl/pvc_ug_4w_bundled bus1=B590 bus2=B2833 length=0.00785952670343 units=km phases=4
new line.L_4290 lineCode=ugsc_16cu_xlpe/nyl/pvc_ug_4w_bundled bus1=B253 bus2=B3330 length=0.00552080400793 units=km phases=4
new line.L_4306 lineCode=ugsc_16cu_xlpe/nyl/pvc_ug_4w_bundled bus1=B2067 bus2=B1581 length=0.0737474399204 units=km phases=4
new line.L_4311 lineCode=ugsc_16cu_xlpe/nyl/pvc_ug_4w_bundled bus1=B145 bus2=B2533 length=0.0216475155629 units=km phases=4
new line.L_4328 lineCode=ughv_400al_triplex_ug_4w_bundled bus1=B681 bus2=B1359 length=7.47735676854e-05 units=km phases=4
new line.L_4342 lineCode=ugsc_16cu_xlpe/nyl/pvc_ug_4w_bundled bus1=B2605 bus2=B2819 length=0.0874906342419 units=km phases=4
new line.L_4360 lineCode=ugsc_16cu_xlpe/nyl/pvc_ug_4w_bundled bus1=B1112 bus2=B40 length=0.117758420806 units=km phases=4
new line.L_4375 lineCode=generic/lv bus1=B476 bus2=B1673 length=0.0381351675196 units=km phases=4
new line.L_4396 lineCode=ugsc_16cu_xlpe/nyl/pvc_ug_4w_bundled bus1=B3087 bus2=B1209 length=0.0154580185909 units=km phases=4
new line.L_4406 lineCode=ugsc_16cu_xlpe/nyl/pvc_ug_4w_bundled bus1=B820 bus2=B214 length=0.0158185084364 units=km phases=4
new line.L_4470 lineCode=generic/lv bus1=B1786 bus2=B1427 length=0.0340067024987 units=km phases=4
new line.L_4492 lineCode=ugsc_16cu_xlpe/nyl/pvc_ug_4w_bundled bus1=B1040 bus2=B2536 length=0.0707700591211 units=km phases=4
new line.L_4509 lineCode=ugsc_16cu_xlpe/nyl/pvc_ug_4w_bundled bus1=B1166 bus2=B3047 length=0.0106117247296 units=km phases=4
new line.L_4510 lineCode=ugsc_16cu_xlpe/nyl/pvc_ug_4w_bundled bus1=B2620 bus2=B2825 length=0.0150126141517 units=km phases=4
new line.L_4597 lineCode=generic/lv bus1=B2769 bus2=B1538 length=0.0208150663832 units=km phases=4
new line.L_4615 lineCode=ugsc_16cu_xlpe/nyl/pvc_ug_4w_bundled bus1=B2607 bus2=B3191 length=0.0156803025854 units=km phases=4
new line.L_4635 lineCode=ugsc_16cu_xlpe/nyl/pvc_ug_4w_bundled bus1=B332 bus2=B476 length=0.0285402656950 units=km phases=4
new line.L_4642 lineCode=ugsc_16cu_xlpe/nyl/pvc_ug_4w_bundled bus1=B3358 bus2=B905 length=0.00649887023104 units=km phases=4
new line.L_4675 lineCode=ugsc_16cu_xlpe/nyl/pvc_ug_4w_bundled bus1=B693 bus2=B2075 length=0.0486105232867 units=km phases=4
new line.L_4698 lineCode=ugsc_16cu_xlpe/nyl/pvc_ug_4w_bundled bus1=B1030 bus2=B1770 length=0.0271360633690 units=km phases=4
